<configuration>
    <input>
        <input>
            <net-file value="city_tls.net.xml"/>
            <route-files value="city_tls.rou.xml"/>
        </input>

    </input>

    <time>
        <begin value="0"/>
        <end value="500"/>
    </time>

    <report>
        <verbose value="true"/>
        <no-step-log value="true"/>
    </report>
</configuration>
