<?xml version="1.0" encoding="UTF-8"?>

<!-- generated on 2025-12-24 17:21:14 by Eclipse SUMO duarouter Version 1.24.0
<duarouterConfiguration xmlns:xsi="http://www.w3.org/2001/XMLSchema-instance" xsi:noNamespaceSchemaLocation="http://sumo.dlr.de/xsd/duarouterConfiguration.xsd">

    <input>
        <net-file value="city_tls.net.xml"/>
        <route-files value="trips.trips.xml"/>
    </input>

    <output>
        <output-file value="city_tls.rou.xml"/>
    </output>

    <report>
        <ignore-errors value="true"/>
    </report>

</duarouterConfiguration>
-->

<routes xmlns:xsi="http://www.w3.org/2001/XMLSchema-instance" xsi:noNamespaceSchemaLocation="http://sumo.dlr.de/xsd/routes_file.xsd">
    <vehicle id="0" depart="0.00">
        <route edges="279711230 843955045#1 843955045#3 -279534805#1 -279711386#2 -279711386#1 843799218#1 843825717#16 -1076253794#0 279948764#1 -1318749815"/>
    </vehicle>
    <vehicle id="1" depart="2.00">
        <route edges="-280213230#0 -280213317#3 -280213317#2 -280213212#2"/>
    </vehicle>
    <vehicle id="2" depart="4.00">
        <route edges="280213246#0 280213290#2 280213290#3 -279535647#1 -279535647#0 279535795#5 279535795#6 279535795#7 279535795#9 279535795#10 279535795#11 279535795#12 279535795#13 279535795#14 279535795#15 279535795#16 280453164 -843955037#1 -843955037#0 374384498 280213269#0 279948581#1"/>
    </vehicle>
    <vehicle id="3" depart="6.00">
        <route edges="843825717#26 843825717#27 -279711167#1 -279711620#0 -279711206#0 279535727#4 279535727#5 279535727#6 279535727#7 279535727#8 279535727#9 279535727#10 279535727#11 279535727#12 279535727#13 279535727#15 279535727#16 279535727#17 279535727#18 279535727#19 279535727#21 279535727#22 279535727#23 279535727#24 848738453#9 848738453#10 -279535677#6 -279535677#5 -279535677#4"/>
    </vehicle>
    <vehicle id="4" depart="8.00">
        <route edges="-843950666#0 -843950667#0 -843950667#2 843950666#1 -279711610#2 -279711610#1 -279711364#2 -279711364#0 -279711136#2 -279711136#1 -279711136#0 657054234#10 1056581633 843955027#0 -279711657#0 843825720#2 843825720#3 843825720#4 843825720#5 843825721#1 843825721#3 843825721#4 843825721#5 843825721#6 843825721#7 843825721#8 279535795#5 279535795#6 279535795#7 279535795#9 279535795#10 279535795#11 279535795#12 -279534985 -1319414022#0"/>
    </vehicle>
    <vehicle id="5" depart="10.00">
        <route edges="-279711582#0 1248886879#3 279535727#0 279535727#1 279535727#2 279535727#3 279535727#4 279535727#5 843950681#0 843950681#1 843950681#2 279535399#0 279535399#1"/>
    </vehicle>
    <vehicle id="6" depart="12.00">
        <route edges="-1208973736#2 -1208973736#1 -1208973736#0 -1195533891#2 -1195533891#1 -1195533891#0 1248886879#0 1248886879#1 1248886879#2 1248886879#3 279535727#0 279535727#1 279535727#2 279535727#3 279535727#4 279535727#5 279535727#6 279535727#7 279535727#8 279535727#9 279535727#10 279535727#11 279535727#12 -1076253794#0 279948764#1 279948764#2 279948764#3 843833849#1 -279711666#5 -279711666#4 -279711666#3"/>
    </vehicle>
    <vehicle id="7" depart="14.00">
        <route edges="-279711582#1 -279711582#0 1248886879#3 279535727#0 279535727#1 279535727#2 279535727#3 279711206#0 279711206#1 415761011#0 279711167#0"/>
    </vehicle>
    <vehicle id="8" depart="16.00">
        <route edges="374048336 843806118#2 843806118#3 843806118#4 843806118#5 178648668#2 -279535734#11 -1208973736#2 -1208973736#1 -1208973736#0 -1195533891#2 -1195533891#1 -1195533891#0 1248886879#0 1248886879#1 1248886879#2 1248886879#3 279535727#0 -374251721#4 -374251721#3 -374251721#2 -374251721#1 -374251721#0 657054234#23 -843942978 374383543#1 -374251730#0 279711437 -279711524#1 -1056580224"/>
    </vehicle>
    <vehicle id="9" depart="18.00">
        <route edges="374048332#0 279711220#2 279711220#3 1195533891#2 1208973736#0 1208973736#1 1208973736#2 -279535734#10 -279535734#9 -279535734#8 -279535734#7 -279535734#5 280213212#1"/>
    </vehicle>
    <vehicle id="10" depart="20.00">
        <route edges="-280453164 843950680#0 843950680#1 279535734#1 279535734#2 279535734#3 280213236#2 280213236#3 280213236#4 280213236#5 843825717#29 843825717#30 843825717#31 279711549#0 415761012 -279711465"/>
    </vehicle>
    <vehicle id="11" depart="22.00">
        <route edges="844603958#2 279711149#0 -279535775#9 -279535775#8 -279535775#7 843955037#0 843955037#1 -280453164 843950680#0 843950680#1 279534900#1 844150198#0 -678633484"/>
    </vehicle>
    <vehicle id="12" depart="24.00">
        <route edges="-279535470#4 -279535470#3 -279535470#2 -1320660595 280213194#1 -279535728#6"/>
    </vehicle>
    <vehicle id="13" depart="26.00">
        <route edges="560786991#0 -560786990 -279711136#0 657054234#10 657054234#12 657054234#13 -279711667#6 -279711667#4 279711359#0"/>
    </vehicle>
    <vehicle id="14" depart="28.00">
        <route edges="374048332#1 -415744666#0 -374048321 279711220#3 1195533891#2 1208973736#0 1208973736#1 1208973736#2 -279535734#10 -279535734#9 280213289#0 280213289#1"/>
    </vehicle>
    <vehicle id="15" depart="30.00">
        <route edges="279534900#2 415798897 -843806119#3 -843806119#2 -843806119#1 -843806119#0 843806120#8 843806120#9 843806120#10 843806120#12 843806120#13 843806120#14 843806120#15 843806120#17 843806120#18 843806120#19 -279535297#3 -279535297#2 -279535297#1 -279535702#0 848738453#2"/>
    </vehicle>
    <vehicle id="16" depart="32.00">
        <route edges="-374387542#1 279711423#1 279711217 374387205#4 374387205#5 374387205#6 -374251729 -279067531 -374251730#2 -657054230#1 -657054230#0 657054234#22 374251721#0 374251721#1 374251721#2 374251721#3 374251721#4 279535727#1 279535727#2 279535727#3 279535727#4 279535727#5 843950681#0 843950681#1 843950681#2 843950681#3 279534900#1 279534900#2 415798897 279535745#2 279535745#3 279534943#0 844603970#0 844603970#1 279535771#2"/>
    </vehicle>
    <vehicle id="17" depart="34.00">
        <route edges="374387546#1 1056580222 374251717#7 279711622#8 279711622#9 279711622#11 279711622#12 657054234#20 657054234#21 657054234#22 374251721#0 374251721#1 1056580235 279711549#1 657054233#3 657054233#4 657054233#5 657054233#6 657054233#7 657054233#8 657054233#9 657054233#10 657054233#11 657054233#12 657054233#13 657054233#14 657054233#15 657054233#16 657054233#17 657054233#18 657054233#19 657054233#20 657054233#21 657054233#22 657054233#23 279711417"/>
    </vehicle>
    <vehicle id="18" depart="36.00">
        <route edges="657054234#0 657054234#1 657054234#2 657054234#3 657054234#4 177626289#1 -279535480#3 -279535480#2 -279535480#1 -279535480#0 -279535687#5 -279536390 848849047#2 848849047#3 279536411#0 279536411#2 279536411#4"/>
    </vehicle>
    <vehicle id="19" depart="38.00">
        <route edges="279711667#4 279711538 1056580213 -279711359#1 -279711359#0 -279711667#3 -279711667#2 -279711667#1 -279711364#4 -279711364#3 -279711364#2 280453287 657054233#19 657054233#20 657054233#21 -279711654#1 -279711654#0 279711285 279535742#3 280453054 -279535182#1 -279535182#0 843825717#7 -279534825#1"/>
    </vehicle>
    <vehicle id="20" depart="40.00">
        <route edges="-279711622#3 -279711622#2 844603963 279711497 279711216 279711640#1 279711640#2 279711640#3 -843950671#1 1193708867 843942990 -843942989#2 -843942989#1 279711622#5 279711622#6 279711622#7 279711622#8 279711622#9 279711622#11 279711622#12 657054234#20 657054234#21 657054234#22 374251721#0 374251721#1 374251721#2 374251721#3 374251721#4 279535727#1 279535727#2 279535727#3 279535727#4 279535727#5 843950681#0 843950681#1 843950681#2 843950681#3 843950681#5 843950681#6 279535795#18 279535795#19 279535795#20 1058051321#0 1058051321#1 1058051321#2 1058051321#3 1058051321#4 1058051319 396962790#1 -415765719#2 -415765719#1 -415765719#0 -335952937#4 -279711173 -335952844#0"/>
    </vehicle>
    <vehicle id="21" depart="42.00">
        <route edges="-279535195#2 -279535195#1 -279535785#2 -279535785#1 -279535363 279535297#2 279535297#3 279535795#0 279535795#1 279535795#2 279535795#3 279535795#5 279535795#6 279535795#7 279535795#9 279535795#10 279535795#11 279535795#12 279535795#13 279535795#14 843806119#0 -280213244#1"/>
    </vehicle>
    <vehicle id="22" depart="44.00">
        <route edges="-279535647#2 -279535647#1 -279535647#0 844603968#1 844603968#2 843825719#0 843825719#1 843825719#2 843825719#4 279535727#21 279535727#22 279535727#23 279535727#24 279535727#26 279535727#27 279535727#28 848849047#0 -849103682#6 -280453006"/>
    </vehicle>
    <vehicle id="23" depart="46.00">
        <route edges="279711206#1 415761011#0 279711167#0 -279711620#0 -279711206#0 279535727#4 279535727#5 843950681#0 843950681#1 843950681#2 843950681#3 843950681#5 843950681#6 280453164 -279535470#7 -280213302#0 -843955035"/>
    </vehicle>
    <vehicle id="24" depart="48.00">
        <route edges="-374251730#2 -657054230#1 -657054230#0 657054234#22 374251721#0 374251721#1 1056580235 279711549#1 657054233#3 657054233#4 657054233#5 657054233#6 657054233#7 657054233#8 657054233#9 657054233#10 657054233#11 657054233#12 657054233#13 -279711340#2 -279711340#1 279711489#0 279711489#1 1318749815 -279948764#1"/>
    </vehicle>
    <vehicle id="25" depart="50.00">
        <route edges="-280213219#1 -280213219#0 843950680#4 843950680#5 843950680#6 843950680#7 279535727#7 279535727#8 279535727#9 279535727#10 279535727#11 279535727#12 -1076253794#0 279711244 -279535357#2 -279535357#1 843955030"/>
    </vehicle>
    <vehicle id="26" depart="52.00">
        <route edges="279711376#2"/>
    </vehicle>
    <vehicle id="27" depart="54.00">
        <route edges="-279711359#0 279711667#4 279711667#6 657054234#14 657054234#15 657054234#16 657054234#17 657054234#18 657054234#19 657054234#20 657054234#21 657054234#22 374251721#0 374251721#1 374251721#2 374251721#3 374251721#4 279535727#1 279535727#2 279535727#3 279535727#4 279535727#5 843950681#0 843950681#1 843950681#2 843950681#3 279534900#1 279534900#2 279534900#3 279534900#4 280213288"/>
    </vehicle>
    <vehicle id="28" depart="56.00">
        <route edges="-279711220#3 -279711220#2 374048332#1 -415744666#0 -374048321 279711220#3 1195533891#2 1208973736#0 1208973736#1 1208973736#2 1208973736#3 1208973736#4 1058051319 1058051320 1257329857#0 1257329857#1 1257329857#2 1257329857#3 -844603958#2 -844603958#1 -844603958#0"/>
    </vehicle>
    <vehicle id="29" depart="58.00">
        <route edges="848858955#9 848858955#10 848858955#11 848858955#12 848858955#13 848858955#14 848858955#15 -279711149#4 -279711149#3 -279711149#2 -279711149#1 -279711149#0 -844603958#2 -279535470#11 279534939#0 279534939#1 843806120#2 280213236#0 280213236#1 280213236#2 280213236#3 280213236#4 280213236#5 843825717#29 843825717#30 843825717#31 843825717#32 843825717#33 843825717#34 843825717#35 843825717#36 279711248 -374251721#0 657054234#23 657054234#24 657054234#25 374251716#0 374387204#0 374387204#1 374387204#2 374387205#6 374387205#7 374387205#0 374387205#1 374387205#2 374387205#3 -279711217 -279711423#1 -279711423#0 279711543#1"/>
    </vehicle>
    <vehicle id="30" depart="60.00">
        <route edges="279535342 848858955#8 848858955#9 848858955#10 279948777#0 279948777#1"/>
    </vehicle>
    <vehicle id="31" depart="62.00">
        <route edges="415765719#0 415765719#1 415765719#2 279972285#0 843806118#5 178648668#2 -279535734#11 -279535734#10 -279535734#9 -279535734#8 -279535734#7 -279535734#5 -279535734#4 -279535734#3 -279535734#2 -279535734#1 843950680#3 843950680#4 843950680#5 843950680#6 843950680#7 279535727#7 279535727#8 279535727#9 279711563#0 279711563#1 843950676 657054233#11 657054233#12 657054233#13 657054233#14 657054233#15 657054233#16 657054233#17 657054233#18 657054233#19 657054233#20 657054233#21 657054233#22 657054233#23 657054233#25 -279711166 279535115#3 848738453#13 657054234#7 657054234#8 279711224#0 279711224#1 -843955024#2 -843955024#1 843955025 280453195#0 280453195#1"/>
    </vehicle>
    <vehicle id="32" depart="64.00">
        <route edges="-279711622#6 -279711622#5 843942989#1 843942989#2 -843942990 -1193708867 843950671#1 -279711640#3 -279711640#2 -279711640#1 -279711640#0 -279711610#1 -279711364#2 280453287 657054233#19 657054233#20 657054233#21 657054233#22 657054233#23 657054233#25 657054233#26 657054233#27 657054233#28 657054233#29 657054233#30 -279535687#11 -279535687#10 -279535687#8 -279535687#7 -279535687#6 -279535687#5 -279535687#4 -279535687#3 -279535687#1 844603969#0 -279536401#2 -279536401#1 -279536401#0 -1320225052"/>
    </vehicle>
    <vehicle id="33" depart="66.00">
        <route edges="-280240122#1 -280240307#0 -279535775#2 -279535775#1 280213276#2 280213276#3 -280240257#1 -280240257#0"/>
    </vehicle>
    <vehicle id="34" depart="68.00">
        <route edges="-279711546#5 -279711546#4 -279711546#3 -279711546#2 279711372#0 -843950674 -279067596#1 -279067596#0 657054234#17 657054234#18 657054234#19 657054234#20 657054234#21 657054234#22 374251721#0 374251721#1 374251721#2 374251721#3 374251721#4 279535727#1 279535727#2 279535727#3 279535727#4 279535727#5 843950681#0 843950681#1 843950681#2 843950681#3 843950681#5 843950681#6 280453164 -843955037#1 -843955037#0 374384498 280213269#0 280213269#1 843955043#0 843955043#1"/>
    </vehicle>
    <vehicle id="35" depart="70.00">
        <route edges="843806118#5 178648668#2 -279535734#11 -1208973736#2 -1208973736#1 -1208973736#0 -1195533891#2 -1195533891#1 -1195533891#0 1248886879#0 1248886879#1 1248886879#2 1248886879#3 279535727#0 -374251721#4 -374251721#3 -374251721#2 -374251721#1 -374251721#0 657054234#23 -843942978 -374383543#0"/>
    </vehicle>
    <vehicle id="36" depart="72.00">
        <route edges="279711410#2 -374387545#0 279711217 374387205#4 374387205#5 374387205#6 -374251729 -279067531 -374251730#2 -657054230#1 -657054230#0 657054234#22 374251721#0 374251721#1 374251721#2 374251721#3 374251721#4 279535727#1 279535727#2 279535727#3 279535727#4 279535727#5 279535727#6 279535727#7 279535727#8 279535727#9 279535727#10 279535727#11 279535727#12 279535727#13 843825718#2 843825718#3 -279535771#4 -279535771#3 -279535771#2 844603970#2 844603970#3 308740498#0 308740498#1 -848860781#1"/>
    </vehicle>
    <vehicle id="37" depart="74.00">
        <route edges="843950666#1 -279711610#2 -279711610#1 -279711364#2 280453287 657054233#19 657054233#20 657054233#21 657054233#22 657054233#23 177626289#1"/>
    </vehicle>
    <vehicle id="38" depart="76.00">
        <route edges="-280213212#0 279535795#20 1058051321#0 1058051321#1 -280213279#1"/>
    </vehicle>
    <vehicle id="39" depart="78.00">
        <route edges="279535399#4 280213232#1 -280213317#0"/>
    </vehicle>
    <vehicle id="40" depart="80.00">
        <route edges="279535727#19 843825721#1 843825721#3 843825721#4 -844157641#1 -280213251#0 844603970#6 843825719#0"/>
    </vehicle>
    <vehicle id="41" depart="82.00">
        <route edges="-560473486 374251721#3 374251721#4 279535727#1 279535727#2 279535727#3 279535727#4 279535727#5 843950681#0 843950681#1 843950681#2 843950681#3 279535734#1 279535734#2 279535734#3 279535734#4 279535734#5 279535734#7 279535734#8 280213289#0 280213293#0 -280213199#1"/>
    </vehicle>
    <vehicle id="42" depart="84.00">
        <route edges="849103682#3 849103682#4 279536409 279536401#2 844603969#1 -843955047#5 -843955047#4 -843955047#3 -843955047#2 -843955047#1 -843955047#0 1319394526#1 1319394526#2 1319394526#3 1319394526#5 843825721#3 843825721#4 843825721#5 843825721#6 843825721#7 843825721#8 279535795#5 279535795#6 279535795#7 279535795#9 279535795#10 279535795#11 279535795#12 279535795#13 279535795#14 -279535144#4 -279535144#3 -279535470#4 -279535470#3 -280213259#1 280213194#0 1320660595 279535470#2"/>
    </vehicle>
    <vehicle id="43" depart="86.00">
        <route edges="-279535462#3 -279535785#4 -279535785#3 -279535785#2 -279535785#1 -279535363 279535297#2 279535297#3 279535795#0 279535795#1 279535795#2 279535795#3 279535795#5 279535795#6 279535795#7 279535795#9 279535795#10 279535795#11 279535795#12 279535795#13 279535795#14 279535795#15 279535795#16 279535795#18 279535795#19 279535795#20 1058051321#0 1058051321#1 1058051321#2 1058051321#3 1058051321#4 -1208973736#4 -279534858#3"/>
    </vehicle>
    <vehicle id="44" depart="88.00">
        <route edges="-279535702#7 -279534785#4 -279534968#1 -279534968#0 -844603971 848858948#0 848858948#1 -279535647#3 -279535647#2 -279535647#1 -279535647#0 844603968#1 844603968#2 843825719#0 843825719#1 843825719#2 843825719#4 843825717#12 843825717#13 843825717#14 843825717#16 843825717#17 843825717#18 279711468"/>
    </vehicle>
    <vehicle id="45" depart="90.00">
        <route edges="308740498#2 279535795#6 280213274#0 280213274#1 844603970#3 844603970#5 844603970#6 843825721#6 843825721#7 843825721#8 843806120#17 843806120#18 -279535754#10 -279535754#9 1189789281"/>
    </vehicle>
    <vehicle id="46" depart="92.00">
        <route edges="-279534927#1 280213254#0 -1319394851#1 279535603#4 279535603#5 279535603#6 1319394525#3 1319394525#4 843955047#0 843955047#1 843955047#2 843955047#3 843955047#4 843955047#5 -844603969#1"/>
    </vehicle>
    <vehicle id="47" depart="94.00">
        <route edges="849103682#0 849103682#2 849103682#3 849103682#4 279536409 279536401#2 -844603969#0 843825717#1 843825717#2 843825717#3 843825717#4 843825717#6 843825717#7 843825717#8 843825717#9 843825717#10 843825717#12 843825717#13 843825717#14 -678633489#1 -678633489#0 279711514#1 279711514#2 279711514#3 279711514#4 279535727#11"/>
    </vehicle>
    <vehicle id="48" depart="96.00">
        <route edges="848738452#8 279535702#0 279535702#1 279535702#2 -844603971 848858948#0 848858948#1 -279535647#3 -279535647#2 -279535647#1 -279535647#0 844603968#1 844603968#2 843825719#0 843825719#1 843825719#2 843825719#4 843833849#0 843833849#1 -279711666#5 -843955027#1 -843955027#0 -1056581633 657054234#12 657054234#13 657054234#14 657054234#15"/>
    </vehicle>
    <vehicle id="49" depart="98.00">
        <route edges="-1119826471 657054234#15 657054234#16 657054234#17 657054234#18 657054234#19 657054234#20 657054234#21 657054234#22 374251721#0 374251721#1 374251721#2 374251721#3 374251721#4 279535727#1 279535727#2 279535727#3 279535727#4 279535727#5 843950681#0 843950681#1 843950681#2 843950681#3 279534900#1 279534900#2 415798897 -843806119#3 280213261#0 280213261#1"/>
    </vehicle>
    <vehicle id="50" depart="100.00">
        <route edges="279711583#0 279948522#0 279948522#1 -279711507#1 -279711507#0 843825717#22 843825717#23 843825717#24 843825717#25 843825717#26 843825717#27 -279711167#1 -279711620#0 -279711206#0 279535727#4 279535727#5 279535727#6 279535727#7 279535727#8 279535727#9"/>
    </vehicle>
    <vehicle id="51" depart="102.00">
        <route edges="-280213219#1 -280213219#0 843950680#4 843950680#5 843950680#6 -279948871#4 -279948871#3 -279948871#2 -279948871#1 -279948800#0 843825717#21 843825717#22 843825717#23 843825717#24 843825717#25 843825717#26 843825717#27 843825717#28 843825717#29 843825717#30 843825717#31 843825717#32 843825717#33 843825717#34 843825717#35 843825717#36 279711248 -374251721#0 657054234#23 657054234#24 657054234#25 374251716#0 374387204#0 374387204#1 279711376#1 -279711410#3 -279711410#2 -279711410#1 279711543#2"/>
    </vehicle>
    <vehicle id="52" depart="104.00">
        <route edges="-279535728#3 -280240257#2 -280213276#3 -280213276#2 -279535775#0 279535728#4 279535728#5 279535728#6 279535728#7 279535771#0 279535771#1 279535771#2 279535771#3 279535771#4 843799218#0 843799218#1 843825717#16 843825717#17 843825717#18 843825717#19 843825717#20 843825717#21 843825717#22 843825717#23 843825717#24 843825717#25 843825717#26 843825717#27 843825717#28 843825717#29 843825717#30 843825717#31 843825717#32 843825717#33 843825717#34 843825717#35 843825717#36 843825717#37 843825717#38 1248886880#0"/>
    </vehicle>
    <vehicle id="53" depart="106.00">
        <route edges="-844603971 848858948#0 848858948#1 -279535647#3 -279535647#2 -279535647#1 -279535647#0 844603968#1 844603968#2 843825719#0 843825719#1 843825719#2 843825719#4 279535727#21 279535727#22 279535727#23 279535727#24 279535727#26 279535727#27 844603969#0"/>
    </vehicle>
    <vehicle id="54" depart="108.00">
        <route edges="843806118#4 843806118#5 178648668#2 -279535734#11 -279535734#10 -279535734#9 -279535734#8 -279535734#7 280213232#0 280213232#1 -280213317#0"/>
    </vehicle>
    <vehicle id="55" depart="110.00">
        <route edges="1208973736#0 1208973736#1 1208973736#2 -279535734#10 -279535734#9 -279535734#8 -279535734#7 -279535734#5 -279535734#4 280213236#2 280213236#3 280213236#4 280213236#5 843825717#29 843825717#30 843825717#31 843825717#32 843825717#33 843825717#34 843825717#35 843825717#36 843825717#37 845057918 657054233#1 657054233#2 657054233#3 657054233#4 657054233#5 657054233#6 657054233#7 -279711583#1"/>
    </vehicle>
    <vehicle id="56" depart="112.00">
        <route edges="843942989#0 843942989#1 843942989#2 -843942990 -1193708867 843950671#1 -279711640#3 -279711640#2 -279711640#1 -279711640#0 -279711610#1 -279711364#2 839014068"/>
    </vehicle>
    <vehicle id="57" depart="114.00">
        <route edges="-280213290#3 -280213200#1 280213202#1 -279535647#2 -279535647#1 -279535647#0 844603968#1 844603968#2 843825719#0 843825719#1 843825719#2 843825719#4 843833849#0 843833849#1 -279711666#5 -843955027#1 -843955027#0 -1056581633 657054234#12 657054234#13 -279711667#6 -279711667#4 -279711667#3 -279711667#2 279711532#0 279711532#1"/>
    </vehicle>
    <vehicle id="58" depart="116.00">
        <route edges="279535771#2 279535771#3 279535771#4 843799218#0 843799218#1 843825717#16 843825717#17 843825717#18 843825717#19 843825717#20 843825717#21 843825717#22 843825717#23 843825717#24 843825717#25 843825717#26 843825717#27 843825717#28 843825717#29 843825717#30 843825717#31 843825717#32 843825717#33 843825717#34 843825717#35 843825717#36 279711248 -374251721#0 657054234#23 657054234#24 657054234#25 374251716#0 374387204#0 374387204#1 374387204#2 374387205#6 374387205#7 374387205#0 374387205#1 374387205#2 374387205#3 -279711217 -279711423#1 -279711423#0"/>
    </vehicle>
    <vehicle id="59" depart="118.00">
        <route edges="280213312#0 -280213295#2 280213290#1 280213290#2 280213290#3 -279535647#1 -279535647#0 279535795#5 279535795#6 279535795#7 279535795#9 279535795#10 279535795#11 279535795#12 279535795#13 279535795#14 -279535144#4 -279535144#3 -279535470#4 -279535470#3 -279535470#2 -279535470#0 279535728#6 279535728#7"/>
    </vehicle>
    <vehicle id="60" depart="120.00">
        <route edges="280452910 -848858955#4 -848858955#2 -848858955#1 279535728#1 279535728#2 279535728#3 279535728#4 279535728#5 279535728#6 279535728#7 279535771#0 279535771#1 279535771#2 279535771#3 279535771#4 843799218#0 843799218#1 279535727#15"/>
    </vehicle>
    <vehicle id="61" depart="122.00">
        <route edges="-1056580212 843955023 843955024#2 -279711224#1 -279711224#0 657054234#9 657054234#10 1056581633 843955027#0 -279711657#0 843825720#2 843825720#3 843825720#4 843825720#5 843825721#1 1319394525#1 -279535603#6 -279535603#5 -279535603#4 -279535603#3 -279535603#2 -279535603#1 -279535603#0 -415743015#3 -415743015#2"/>
    </vehicle>
    <vehicle id="62" depart="124.00">
        <route edges="-1193708867 843950671#1 843950671#2 -279711546#3 -279711546#2 279711372#0 -843950674 -279067596#1 -279067596#0 657054234#17 657054234#18 657054234#19 657054234#20 657054234#21 657054234#22 374251721#0 374251721#1 374251721#2 374251721#3 374251721#4 279535727#1 279535727#2 279535727#3 279535727#4 279535727#5 843950681#0 843950681#1 843950681#2 843950681#3 843950681#5 843950681#6 279535795#18 279535795#19 279535795#20 1058051321#0 1058051321#1 1058051321#2 1058051321#3 1058051321#4 1058051319 396962790#1 279972285#0 279972285#1 279972285#2 279972285#3 854556994 -279948541#2 -279948541#1 -279948541#0 843950682#1"/>
    </vehicle>
    <vehicle id="63" depart="126.00">
        <route edges="843806120#0 843806120#1 843806120#2 843806120#3 843806120#4 843806120#6 843806120#7 843806120#8 843806120#9 843806120#10 843806120#12 843806120#13 843806120#14 843806120#15 844603968#1 844603968#2 843825719#0 843825719#1 843825719#2 1319394525#1 1319394525#3 1319394525#4 848738453#7 843825717#6 843825717#7 843825717#8 279535742#0 415473584#4"/>
    </vehicle>
    <vehicle id="64" depart="128.00">
        <route edges="-280213313#0 843825717#10 843825721#1 1319394525#1 1319394525#3 1319394525#4 843955047#0 843955047#1 279535476#2 279535476#4 -279535025#1"/>
    </vehicle>
    <vehicle id="65" depart="130.00">
        <route edges="843806120#0 843806120#1 843806120#2 843806120#3 843806120#4 843806120#6 843806120#7 843806120#8 843806120#9 843806120#10 843806120#12 843806120#13 843806120#14 843806120#15 844603968#1 844603968#2 843825719#0 843825719#1 843825719#2 1319394525#1 1319394525#3 1319394525#4 843955047#0 843955047#1 843955047#2 843955047#3 843955047#4"/>
    </vehicle>
    <vehicle id="66" depart="132.00">
        <route edges="-279535357#0 843825717#13 -279535357#4 -279535357#3 -279535357#2 -843955029 843825720#5 843825721#1 843825721#3 843825721#4 843825721#5 843825721#6 843825721#7 843825721#8 279535647#0 279535647#1 279535647#2 279535647#3 848858950#0 848858950#1 844603971 279534968#0 279534968#1 279534968#2"/>
    </vehicle>
    <vehicle id="67" depart="134.00">
        <route edges="-279534970#0 -233492401#0 -844603966#0 -415743015#3 -415743015#2 -415743015#1 279535795#0 279535795#1 279535795#2 279535795#3 279535795#5 279535795#6 279535795#7 279535795#9 279535795#10 279535795#11 279535795#12 279535795#13 279535795#14 279535795#15 279535795#16 280453164 -843955037#1 -843955037#0 374384498 280213269#0 279948581#1 280453241#0 280452967"/>
    </vehicle>
    <vehicle id="68" depart="136.00">
        <route edges="280213317#0 280213317#1 280213317#2 280213236#5 279535727#2 279535727#3 279711206#0 279711620#0 -279711167#0"/>
    </vehicle>
    <vehicle id="69" depart="138.00">
        <route edges="-955557219 -848858955#4 -848858955#2 -848858955#1 -848858955#0 -848858954#0 -1189788729 -374047344#0 -279535702#4 -279535702#2 279535754#4 279535754#5"/>
    </vehicle>
    <vehicle id="70" depart="140.00">
        <route edges="-280213212#1 -279535734#4 -279535734#3 -279535734#2 -279535734#1 279534900#1 279534900#2 279534900#3 279534900#4 279534900#5 279534900#6 279535771#3 279535771#4 843799218#0 843799218#1"/>
    </vehicle>
    <vehicle id="71" depart="142.00">
        <route edges="-843950667#1 843950666#0 843950666#1 -279711610#2 -279711610#1 -279711364#2 280453287 657054233#19 657054233#20 657054233#21 657054233#22 657054233#23 657054233#25 657054233#26 657054233#27 657054233#28 657054233#29 657054233#30 -279535687#11 -279535687#10 -279535687#8 -279535687#7 -279535687#6 -279535687#5 -279536390 848849046#1 -279948793"/>
    </vehicle>
    <vehicle id="72" depart="144.00">
        <route edges="279534927#2 1319394851#0 279535603#4 279535603#5 -279711198 -279711491#0 843825721#5 843825721#6 843825721#7 843825721#8 279535795#5 279535795#6 279535795#7 279535795#9 279535795#10 279535795#11 279535795#12 279535795#13 279535795#14 279535795#15 279535795#16 843950680#0 843950680#1 279535734#1 279535734#2 279535734#3 279535734#4 279535734#5 279535734#7 279535734#8 280213289#0 280213289#1"/>
    </vehicle>
    <vehicle id="73" depart="146.00">
        <route edges="-279711507#0 843825717#22 843825717#23 843825717#24 843825717#25 843825717#26 843825717#27 843825717#28 843825717#29 843825717#30 843825717#31 843825717#32 843825717#33 843825717#34 843825717#35 843825717#36 279711248 -374251721#0 657054234#23 657054234#24 657054234#25 374251716#0 374387204#0 374387204#1 374387204#2 374387205#6 374387205#7 374387205#0 374251717#0 374251717#1 374251717#2 -1193713065 1056580223#1 -374251722#0"/>
    </vehicle>
    <vehicle id="74" depart="148.00">
        <route edges="849103677#1 -279535785#1 -279535363 279535297#2 279535297#3 279535795#0 279535795#1 279535795#2 279535795#3 844603968#1 844603968#2 843825719#0 843825719#1 843825719#2 843825719#4 843833849#0 843833849#1 -279711666#5 -843955027#1 -843955027#0 -1056581633 657054234#12 657054234#13 -279711667#6 -279711667#4 -279711667#3 -279711667#2 -279711667#1 -279711667#0 279711572#1"/>
    </vehicle>
    <vehicle id="75" depart="150.00">
        <route edges="-843955032#1 -843955032#0 -843806119#1 -843806119#0 843806120#8 843806120#9 843806120#10 843806120#12 843806120#13 843806120#14 843806120#15 279535647#0"/>
    </vehicle>
    <vehicle id="76" depart="152.00">
        <route edges="-279535745#2 -843806119#3 -843806119#2 -843806119#1 -843806119#0 279535795#15 279535795#16 279535795#18 279535795#19 279535795#20 1058051321#0 1058051321#1 1058051321#2 1058051321#3 1058051321#4 1058051319 1058051320 1257329857#0 1257329857#1 1257329857#2 -280213218"/>
    </vehicle>
    <vehicle id="77" depart="154.00">
        <route edges="-280453145 -843955039 -280213224#1 -280213224#0 -843950685 -280453089 843806120#4 843950680#0 843950680#1 843950680#3 843950680#4 843950680#5 843950680#6 843950680#7 279535727#7 279535727#8 279535727#9 279711563#0 279711563#1 843950676 657054233#11 657054233#12 657054233#13 657054233#14 657054233#15 657054233#16 657054233#17 657054233#18 657054233#19 657054233#20 657054233#21 657054233#22 -279711657#6 279711163#0"/>
    </vehicle>
    <vehicle id="78" depart="156.00">
        <route edges="-279711622#9 -279711622#8 -374251717#7 -1056580222 -374387546#1 374251719 -843942980 -279711635#0 657054234#21 657054234#22 374251721#0 374251721#1 374251721#2 374251721#3 374251721#4 279535727#1 279535727#2 279535727#3 279535727#4 279535727#5 279535727#6 279535727#7 279535727#8 279535727#9 279535727#10 279535727#11 279535727#12 279535727#13 279535727#15 279535727#16 279535727#17 279535727#18 279535727#19 843825721#1 843825721#3 843825721#4 843825721#5 843825721#6 -280213201#1 -280213201#0"/>
    </vehicle>
    <vehicle id="79" depart="158.00">